test/data/pti/ACTIVSg200.RAW
0,    100.00, 33, 0, 0, 60.00       / July 11, 2024 09:36:09; Simulator Version 23; BuildDate 2024_6_10
This is a synthetic power system model that does not represent the actual grid. It was developed as part of the US ARPA-E Grid 
Data research project and contains no CEII.
    1,'CREVE COEU~1', 115.0000,1,   1,   2,   1,0.99996728, -76.665062, 1.10000, 0.90000, 1.10000, 0.90000
    2,'CREVE COEU~2', 115.0000,1,   1,   2,   1,0.99979138, -76.684576, 1.10000, 0.90000, 1.10000, 0.90000
    3,'ILLIOPOLIS 0', 115.0000,1,   1,   4,   1,1.01784074, -77.968727, 1.10000, 0.90000, 1.10000, 0.90000
    4,'ILLIOPOLIS 1', 115.0000,1,   1,   4,   1,1.01780081, -77.973385, 1.10000, 0.90000, 1.10000, 0.90000
    5,'PAXTON 2 0  ', 115.0000,1,   1,   6,   1,1.02630270, -81.890847, 1.10000, 0.90000, 1.10000, 0.90000
    6,'PAXTON 2 1  ', 115.0000,1,   1,   6,   1,1.02612925, -81.909329, 1.10000, 0.90000, 1.10000, 0.90000
    7,'PEORIA 9 0  ', 115.0000,1,   1,   2,   1,0.99051863, -77.829978, 1.10000, 0.90000, 1.10000, 0.90000
    8,'PEORIA 9 1  ', 115.0000,1,   1,   2,   1,0.98997617, -77.891102, 1.10000, 0.90000, 1.10000, 0.90000
    9,'PEORIA 8 0  ', 115.0000,1,   1,   2,   1,0.99494535, -77.179970, 1.10000, 0.90000, 1.10000, 0.90000
   10,'PEORIA 8 1  ', 115.0000,1,   1,   2,   1,0.99386317, -77.317639, 1.10000, 0.90000, 1.10000, 0.90000
   11,'LOVINGTON 0 ', 115.0000,1,   1,   4,   1,1.03650677, -76.287756, 1.10000, 0.90000, 1.10000, 0.90000
   12,'LOVINGTON 1 ', 115.0000,1,   1,   4,   1,1.03649962, -76.288616, 1.10000, 0.90000, 1.10000, 0.90000
   13,'LOVINGTON 2 ', 115.0000,1,   1,   4,   1,1.03644323, -76.295064, 1.10000, 0.90000, 1.10000, 0.90000
   14,'DECATUR 3 0 ', 230.0000,1,   1,   4,   1,1.03577042, -74.965096, 1.10000, 0.90000, 1.10000, 0.90000
   15,'DECATUR 3 1 ', 115.0000,1,   1,   4,   1,1.03805482, -76.092269, 1.10000, 0.90000, 1.10000, 0.90000
   16,'DECATUR 3 2 ', 115.0000,1,   1,   4,   1,1.03705180, -76.207016, 1.10000, 0.90000, 1.10000, 0.90000
   17,'MASON CITY 0', 115.0000,1,   1,   4,   1,1.00594723, -79.528967, 1.10000, 0.90000, 1.10000, 0.90000
   18,'MASON CITY 1', 115.0000,1,   1,   4,   1,1.00592899, -79.531392, 1.10000, 0.90000, 1.10000, 0.90000
   19,'MASON CITY 2', 115.0000,1,   1,   4,   1,1.00593042, -79.530989, 1.10000, 0.90000, 1.10000, 0.90000
   20,'MASON CITY 3', 115.0000,1,   1,   4,   1,1.00591922, -79.532178, 1.10000, 0.90000, 1.10000, 0.90000
   21,'MASON CITY 4', 115.0000,1,   1,   4,   1,1.00582087, -79.544506, 1.10000, 0.90000, 1.10000, 0.90000
   22,'BETHANY 0   ', 115.0000,1,   1,   4,   1,1.03560269, -76.304804, 1.10000, 0.90000, 1.10000, 0.90000
   23,'BETHANY 1   ', 115.0000,1,   1,   4,   1,1.03556955, -76.308438, 1.10000, 0.90000, 1.10000, 0.90000
   24,'BETHANY 2   ', 115.0000,1,   1,   4,   1,1.03554547, -76.310623, 1.10000, 0.90000, 1.10000, 0.90000
   25,'RANKIN 0    ', 115.0000,1,   1,   6,   1,1.02673042, -82.152006, 1.10000, 0.90000, 1.10000, 0.90000
   26,'RANKIN 1    ', 115.0000,1,   1,   6,   1,1.02670383, -82.154902, 1.10000, 0.90000, 1.10000, 0.90000
   27,'WINDSOR 0   ', 115.0000,1,   1,   4,   1,1.03615654, -76.475586, 1.10000, 0.90000, 1.10000, 0.90000
   28,'WINDSOR 1   ', 115.0000,1,   1,   4,   1,1.03609526, -76.483065, 1.10000, 0.90000, 1.10000, 0.90000
   29,'PEKIN 2 0   ', 115.0000,1,   1,   2,   1,0.99983335, -76.340164, 1.10000, 0.90000, 1.10000, 0.90000
   30,'PEKIN 2 1   ', 115.0000,1,   1,   2,   1,0.99845493, -76.485899, 1.10000, 0.90000, 1.10000, 0.90000
   31,'HEYWORTH 0  ', 115.0000,1,   1,   7,   1,0.99921036, -81.465196, 1.10000, 0.90000, 1.10000, 0.90000
   32,'HEYWORTH 1  ', 115.0000,1,   1,   7,   1,0.99919796, -81.466678, 1.10000, 0.90000, 1.10000, 0.90000
   33,'HEYWORTH 2  ', 115.0000,1,   1,   7,   1,0.99907273, -81.482784, 1.10000, 0.90000, 1.10000, 0.90000
   34,'DECATUR 2 0 ', 115.0000,1,   1,   4,   1,1.02223778, -77.114318, 1.10000, 0.90000, 1.10000, 0.90000
   35,'DECATUR 2 1 ', 115.0000,1,   1,   4,   1,1.02171528, -77.177600, 1.10000, 0.90000, 1.10000, 0.90000
   36,'LINCOLN 0   ', 115.0000,1,   1,   7,   1,1.00570178, -81.471343, 1.10000, 0.90000, 1.10000, 0.90000
   37,'LINCOLN 1   ', 115.0000,1,   1,   7,   1,1.00562906, -81.480093, 1.10000, 0.90000, 1.10000, 0.90000
   38,'LINCOLN 2   ', 115.0000,1,   1,   7,   1,1.00502479, -81.547882, 1.10000, 0.90000, 1.10000, 0.90000
   39,'SHERMAN 0   ', 115.0000,1,   1,   4,   1,1.00876772, -79.388238, 1.10000, 0.90000, 1.10000, 0.90000
   40,'SHERMAN 1   ', 115.0000,1,   1,   4,   1,1.00872314, -79.393634, 1.10000, 0.90000, 1.10000, 0.90000
   41,'URBANA 2 0  ', 115.0000,1,   1,   5,   1,1.01772380, -83.459502, 1.10000, 0.90000, 1.10000, 0.90000
   42,'SPRINGFIE~18', 115.0000,1,   1,   4,   1,1.01907122, -77.428479, 1.10000, 0.90000, 1.10000, 0.90000
   43,'CARLOCK 0   ', 115.0000,1,   1,   2,   1,0.99457455, -79.880763, 1.10000, 0.90000, 1.10000, 0.90000
   44,'PLEASANT P~1', 115.0000,1,   1,   4,   1,1.01498735, -77.557406, 1.10000, 0.90000, 1.10000, 0.90000
   45,'LE ROY 0    ', 230.0000,1,   1,   7,   1,1.02819753, -75.643191, 1.10000, 0.90000, 1.10000, 0.90000
   46,'LE ROY 1    ', 115.0000,1,   1,   7,   1,1.02571845, -76.433246, 1.10000, 0.90000, 1.10000, 0.90000
   47,'DECATUR 1 0 ', 115.0000,1,   1,   4,   1,1.03336394, -75.493084, 1.10000, 0.90000, 1.10000, 0.90000
   48,'RANTOUL 2 0 ', 115.0000,1,   1,   6,   1,1.02561653, -81.848978, 1.10000, 0.90000, 1.10000, 0.90000
   49,'RANTOUL 2 1 ',  13.8000,2,   1,   6,   1,1.03737247, -80.581861, 1.10000, 0.90000, 1.10000, 0.90000
   50,'RANTOUL 2 2 ',  13.8000,2,   1,   6,   1,1.03466451, -80.885136, 1.10000, 0.90000, 1.10000, 0.90000
   51,'RANTOUL 2 3 ',  13.8000,2,   1,   6,   1,1.03891051, -80.387126, 1.10000, 0.90000, 1.10000, 0.90000
   52,'RANTOUL 2 4 ',  13.8000,2,   1,   6,   1,1.03418922, -80.944278, 1.10000, 0.90000, 1.10000, 0.90000
   53,'RANTOUL 2 5 ',  13.8000,2,   1,   6,   1,1.03999996, -79.067158, 1.10000, 0.90000, 1.10000, 0.90000
   54,'MACON 0     ', 115.0000,1,   1,   4,   1,1.03033829, -75.919923, 1.10000, 0.90000, 1.10000, 0.90000
   55,'ELLSWORTH ~5', 230.0000,1,   1,   7,   1,1.02538717, -76.490448, 1.10000, 0.90000, 1.10000, 0.90000
   56,'ELLSWORTH ~6', 115.0000,1,   1,   7,   1,1.02351725, -76.784133, 1.10000, 0.90000, 1.10000, 0.90000
   57,'MOUNT PULA~1', 115.0000,1,   1,   4,   1,1.01510108, -78.454299, 1.10000, 0.90000, 1.10000, 0.90000
   58,'WAPELLA 0   ', 115.0000,1,   1,   7,   1,1.01297688, -81.284046, 1.10000, 0.90000, 1.10000, 0.90000
   59,'ROANOKE 0   ', 115.0000,1,   1,   2,   1,0.99719632, -79.980634, 1.10000, 0.90000, 1.10000, 0.90000
   60,'GREEN VALL~1', 115.0000,1,   1,   2,   1,1.01636910, -75.202705, 1.10000, 0.90000, 1.10000, 0.90000
   61,'BLOOMINGTO~3', 115.0000,1,   1,   7,   1,1.02175796, -76.982113, 1.10000, 0.90000, 1.10000, 0.90000
   62,'SPRINGFIE~17', 115.0000,1,   1,   4,   1,1.01607800, -78.312531, 1.10000, 0.90000, 1.10000, 0.90000
   63,'BEMENT 0    ', 115.0000,1,   1,   4,   1,1.02858865, -77.848106, 1.10000, 0.90000, 1.10000, 0.90000
   64,'PAXTON 1 0  ', 115.0000,1,   1,   6,   1,1.02920735, -81.630965, 1.10000, 0.90000, 1.10000, 0.90000
   65,'PAXTON 1 1  ',  13.8000,2,   1,   6,   1,1.03999996, -81.421032, 1.10000, 0.90000, 1.10000, 0.90000
   66,'MOUNT ZION 0', 115.0000,1,   1,   4,   1,1.03672874, -74.990484, 1.10000, 0.90000, 1.10000, 0.90000
   67,'MOUNT ZION 1',  13.8000,2,   1,   4,   1,1.03999996, -74.647602, 1.10000, 0.90000, 1.10000, 0.90000
   68,'MOUNT ZION 2',  13.8000,2,   1,   4,   1,1.03999996, -71.061254, 1.10000, 0.90000, 1.10000, 0.90000
   69,'MOUNT ZION 3',  13.8000,2,   1,   4,   1,1.03999996, -73.587160, 1.10000, 0.90000, 1.10000, 0.90000
   70,'MOUNT ZION 4',  13.8000,2,   1,   4,   1,1.03999996, -72.035348, 1.10000, 0.90000, 1.10000, 0.90000
   71,'MOUNT ZION 5',  13.8000,2,   1,   4,   1,1.03999996, -73.786650, 1.10000, 0.90000, 1.10000, 0.90000
   72,'MOUNT ZION 6',  13.8000,2,   1,   4,   1,1.03999996, -73.890182, 1.10000, 0.90000, 1.10000, 0.90000
   73,'MOUNT ZION 7',  13.8000,2,   1,   4,   1,1.03999996, -72.823156, 1.10000, 0.90000, 1.10000, 0.90000
   74,'RANTOUL 1 0 ', 115.0000,1,   1,   6,   1,1.01752853, -82.488092, 1.10000, 0.90000, 1.10000, 0.90000
   75,'BRIMFIELD 0 ', 115.0000,1,   1,   2,   1,1.01510024, -74.814491, 1.10000, 0.90000, 1.10000, 0.90000
   76,'BRIMFIELD 1 ',  13.8000,2,   1,   2,   1,1.03103220, -74.342183, 1.10000, 0.90000, 1.10000, 0.90000
   77,'BRIMFIELD 2 ',  13.8000,2,   1,   2,   1,1.03999996, -74.008303, 1.10000, 0.90000, 1.10000, 0.90000
   78,'BRIMFIELD 3 ',  13.8000,1,   1,   2,   1,1.01510024, -74.814491, 1.10000, 0.90000, 1.10000, 0.90000
   79,'BRIMFIELD 4 ',  13.8000,1,   1,   2,   1,1.01510024, -74.814491, 1.10000, 0.90000, 1.10000, 0.90000
   80,'WELDON 0    ', 115.0000,1,   1,   5,   1,1.01987541, -82.050502, 1.10000, 0.90000, 1.10000, 0.90000
   81,'GIBSON CIT~4', 230.0000,1,   1,   6,   1,1.02424324, -78.194936, 1.10000, 0.90000, 1.10000, 0.90000
   82,'GIBSON CIT~5', 115.0000,1,   1,   6,   1,1.02471936, -79.511339, 1.10000, 0.90000, 1.10000, 0.90000
   83,'MINIER 0    ', 115.0000,1,   1,   7,   1,1.01175451, -79.986740, 1.10000, 0.90000, 1.10000, 0.90000
   84,'HUDSON 0    ', 115.0000,1,   1,   2,   1,0.99755877, -80.113754, 1.10000, 0.90000, 1.10000, 0.90000
   85,'ATHENS 0    ', 115.0000,1,   1,   4,   1,1.00686812, -79.644227, 1.10000, 0.90000, 1.10000, 0.90000
   86,'PEORIA HEI~1', 115.0000,1,   1,   2,   1,0.99245554, -77.512525, 1.10000, 0.90000, 1.10000, 0.90000
   87,'SPRINGFIE~15', 230.0000,1,   1,   3,   1,1.03024280, -73.726544, 1.10000, 0.90000, 1.10000, 0.90000
   88,'SPRINGFIE~16', 115.0000,1,   1,   3,   1,1.02629900, -75.589533, 1.10000, 0.90000, 1.10000, 0.90000
   89,'CLINTON 3 0 ', 115.0000,1,   1,   7,   1,1.01595163, -80.392139, 1.10000, 0.90000, 1.10000, 0.90000
   90,'CLINTON 3 1 ',  13.8000,2,   1,   7,   1,1.03999996, -79.240406, 1.10000, 0.90000, 1.10000, 0.90000
   91,'CLINTON 3 2 ',  13.8000,2,   1,   7,   1,1.02876663, -80.012579, 1.10000, 0.90000, 1.10000, 0.90000
   92,'CLINTON 3 3 ',  13.8000,1,   1,   7,   1,1.01595163, -80.392139, 1.10000, 0.90000, 1.10000, 0.90000
   93,'TUSCOLA 2 0 ', 115.0000,1,   1,   4,   1,1.03487802, -77.363968, 1.10000, 0.90000, 1.10000, 0.90000
   94,'TUSCOLA 2 1 ',  13.8000,2,   1,   4,   1,1.03999996, -74.683440, 1.10000, 0.90000, 1.10000, 0.90000
   95,'KENNEY 0    ', 115.0000,1,   1,   7,   1,1.02351737, -80.958744, 1.10000, 0.90000, 1.10000, 0.90000
   96,'MANSFIELD 0 ', 115.0000,1,   1,   7,   1,1.02262759, -78.136743, 1.10000, 0.90000, 1.10000, 0.90000
   97,'MANITO 0    ', 115.0000,1,   1,   2,   1,1.01251125, -76.472492, 1.10000, 0.90000, 1.10000, 0.90000
   98,'DUNLAP 0    ', 230.0000,1,   1,   2,   1,1.01182926, -73.863824, 1.10000, 0.90000, 1.10000, 0.90000
   99,'DUNLAP 1    ', 115.0000,1,   1,   2,   1,1.00491989, -75.331434, 1.10000, 0.90000, 1.10000, 0.90000
  100,'CHAMPAIGN~10', 115.0000,1,   1,   5,   1,1.02734196, -82.790232, 1.10000, 0.90000, 1.10000, 0.90000
  101,'PEORIA 7 0  ', 115.0000,1,   1,   2,   1,0.99394101, -77.441791, 1.10000, 0.90000, 1.10000, 0.90000
  102,'ELLSWORTH ~1', 230.0000,1,   1,   7,   1,1.02667451, -76.282374, 1.10000, 0.90000, 1.10000, 0.90000
  103,'ELLSWORTH ~2', 115.0000,1,   1,   7,   1,1.02309144, -76.823803, 1.10000, 0.90000, 1.10000, 0.90000
  104,'ELLSWORTH ~3',  13.8000,2,   1,   7,   1,1.03999996, -75.456945, 1.10000, 0.90000, 1.10000, 0.90000
  105,'ELLSWORTH ~4',  13.8000,2,   1,   7,   1,1.03999996, -75.222998, 1.10000, 0.90000, 1.10000, 0.90000
  106,'TOWANDA 0   ', 115.0000,1,   1,   7,   1,1.01875949, -77.222611, 1.10000, 0.90000, 1.10000, 0.90000
  107,'BLOOMINGTO~2', 115.0000,1,   1,   7,   1,0.99385333, -81.224753, 1.10000, 0.90000, 1.10000, 0.90000
  108,'PRINCEVILL~1', 115.0000,1,   1,   2,   1,1.01016426, -75.610126, 1.10000, 0.90000, 1.10000, 0.90000
  109,'DELAVAN 0   ', 115.0000,1,   1,   4,   1,1.00803709, -78.988911, 1.10000, 0.90000, 1.10000, 0.90000
  110,'PEORIA 6 0  ', 115.0000,1,   1,   2,   1,0.99411523, -77.384657, 1.10000, 0.90000, 1.10000, 0.90000
  111,'SAVOY 0     ', 115.0000,1,   1,   5,   1,1.01310897, -83.648589, 1.10000, 0.90000, 1.10000, 0.90000
  112,'NORMAL 2 0  ', 230.0000,1,   1,   7,   1,1.02110505, -76.876586, 1.10000, 0.90000, 1.10000, 0.90000
  113,'NORMAL 2 1  ', 115.0000,1,   1,   7,   1,1.00091732, -80.178361, 1.10000, 0.90000, 1.10000, 0.90000
  114,'NORMAL 2 2  ',  13.8000,2,   1,   7,   1,1.02286613, -76.793203, 1.10000, 0.90000, 1.10000, 0.90000
  115,'NORMAL 2 3  ',  13.8000,2,   1,   7,   1,1.03999996, -75.282318, 1.10000, 0.90000, 1.10000, 0.90000
  116,'EAST PEORI~1', 230.0000,1,   1,   2,   1,1.01066935, -74.464143, 1.10000, 0.90000, 1.10000, 0.90000
  117,'EAST PEORI~2', 115.0000,1,   1,   2,   1,0.99980736, -77.046617, 1.10000, 0.90000, 1.10000, 0.90000
  118,'HANNA CITY 0', 115.0000,1,   1,   2,   1,1.00430381, -76.151425, 1.10000, 0.90000, 1.10000, 0.90000
  119,'METAMORA 0  ', 115.0000,1,   1,   2,   1,0.99346817, -79.377781, 1.10000, 0.90000, 1.10000, 0.90000
  120,'GREENVIEW 0 ', 115.0000,1,   1,   4,   1,1.00644433, -79.644070, 1.10000, 0.90000, 1.10000, 0.90000
  121,'CLINTON 2 0 ', 230.0000,1,   1,   7,   1,1.03346920, -74.258213, 1.10000, 0.90000, 1.10000, 0.90000
  122,'CLINTON 2 1 ', 115.0000,1,   1,   7,   1,1.02727842, -76.430227, 1.10000, 0.90000, 1.10000, 0.90000
  123,'BARTONVILL~1', 230.0000,1,   1,   2,   1,1.02251172, -72.317852, 1.10000, 0.90000, 1.10000, 0.90000
  124,'BARTONVILL~2', 115.0000,1,   1,   2,   1,1.00911117, -75.087261, 1.10000, 0.90000, 1.10000, 0.90000
  125,'BARTONVILL~3',  13.8000,2,   1,   2,   1,1.03999996, -63.889931, 1.10000, 0.90000, 1.10000, 0.90000
  126,'BARTONVILL~4',  13.8000,2,   1,   2,   1,1.03999996, -66.997524, 1.10000, 0.90000, 1.10000, 0.90000
  127,'BARTONVILL~5',  13.8000,2,   1,   2,   1,1.03999996, -69.785914, 1.10000, 0.90000, 1.10000, 0.90000
  128,'NORMAL 1 0  ', 230.0000,1,   1,   7,   1,1.02058053, -76.725482, 1.10000, 0.90000, 1.10000, 0.90000
  129,'NORMAL 1 1  ', 115.0000,1,   1,   7,   1,0.99956888, -80.396128, 1.10000, 0.90000, 1.10000, 0.90000
  130,'LEXINGTON 0 ', 115.0000,1,   1,   7,   1,1.01509774, -77.503120, 1.10000, 0.90000, 1.10000, 0.90000
  131,'PEORIA 5 0  ', 115.0000,1,   1,   2,   1,0.99509937, -77.217044, 1.10000, 0.90000, 1.10000, 0.90000
  132,'MORTON 0    ', 115.0000,1,   1,   2,   1,0.99041992, -79.399849, 1.10000, 0.90000, 1.10000, 0.90000
  133,'PEKIN 1 0   ', 230.0000,1,   1,   2,   1,1.02449799, -72.516774, 1.10000, 0.90000, 1.10000, 0.90000
  134,'PEKIN 1 1   ', 115.0000,1,   1,   2,   1,1.02029955, -74.013624, 1.10000, 0.90000, 1.10000, 0.90000
  135,'PEKIN 1 2   ',  13.8000,2,   1,   2,   1,1.03999996, -68.986885, 1.10000, 0.90000, 1.10000, 0.90000
  136,'PEKIN 1 3   ',  13.8000,2,   1,   2,   1,1.03999996, -69.240749, 1.10000, 0.90000, 1.10000, 0.90000
  137,'NIANTIC 0   ', 115.0000,1,   1,   4,   1,1.01983798, -77.596024, 1.10000, 0.90000, 1.10000, 0.90000
  138,'COLFAX 0    ', 115.0000,1,   1,   6,   1,1.01872087, -80.000141, 1.10000, 0.90000, 1.10000, 0.90000
  139,'EL PASO 0   ', 115.0000,1,   1,   2,   1,1.00157750, -80.251888, 1.10000, 0.90000, 1.10000, 0.90000
  140,'TREMONT 0   ', 115.0000,1,   1,   2,   1,1.00723696, -75.520063, 1.10000, 0.90000, 1.10000, 0.90000
  141,'PEORIA 4 0  ', 115.0000,1,   1,   2,   1,0.99407458, -77.365293, 1.10000, 0.90000, 1.10000, 0.90000
  142,'PEORIA 3 0  ', 115.0000,1,   1,   2,   1,0.99236470, -77.333301, 1.10000, 0.90000, 1.10000, 0.90000
  143,'CHAMPAIGN ~9', 115.0000,1,   1,   5,   1,1.01082957, -81.122054, 1.10000, 0.90000, 1.10000, 0.90000
  144,'EUREKA 0    ', 115.0000,1,   1,   2,   1,1.00438356, -77.912309, 1.10000, 0.90000, 1.10000, 0.90000
  145,'CHATHAM 0   ', 115.0000,1,   1,   3,   1,1.01842380, -76.644695, 1.10000, 0.90000, 1.10000, 0.90000
  146,'HOPEDALE 2 0', 115.0000,1,   1,   7,   1,1.01593924, -80.246246, 1.10000, 0.90000, 1.10000, 0.90000
  147,'HOPEDALE 2 1',  13.8000,2,   1,   7,   1,1.03719950, -79.533530, 1.10000, 0.90000, 1.10000, 0.90000
  148,'WASHINGTON 0', 115.0000,1,   1,   2,   1,0.98606527, -78.413577, 1.10000, 0.90000, 1.10000, 0.90000
  149,'SPRINGFIEL~8', 230.0000,1,   1,   3,   1,1.03300726, -73.106752, 1.10000, 0.90000, 1.10000, 0.90000
  150,'SPRINGFIEL~9', 115.0000,1,   1,   3,   1,1.03104126, -74.857903, 1.10000, 0.90000, 1.10000, 0.90000
  151,'SPRINGFIE~10',  13.8000,2,   1,   3,   1,1.03999996, -71.317721, 1.10000, 0.90000, 1.10000, 0.90000
  152,'SPRINGFIE~11',  13.8000,2,   1,   3,   1,1.03999996, -67.271845, 1.10000, 0.90000, 1.10000, 0.90000
  153,'SPRINGFIE~12',  13.8000,2,   1,   3,   1,1.03999996, -65.501774, 1.10000, 0.90000, 1.10000, 0.90000
  154,'SPRINGFIE~13',  13.8000,2,   1,   3,   1,1.03999996, -68.874234, 1.10000, 0.90000, 1.10000, 0.90000
  155,'SPRINGFIE~14',  13.8000,2,   1,   3,   1,1.03999996, -69.002539, 1.10000, 0.90000, 1.10000, 0.90000
  156,'PEORIA 2 0  ', 230.0000,1,   1,   2,   1,1.02264023, -72.515353, 1.10000, 0.90000, 1.10000, 0.90000
  157,'PEORIA 2 1  ', 115.0000,1,   1,   2,   1,1.01920867, -73.660961, 1.10000, 0.90000, 1.10000, 0.90000
  158,'MT ZION 0   ', 115.0000,1,   1,   4,   1,1.03584731, -75.825475, 1.10000, 0.90000, 1.10000, 0.90000
  159,'BUFFALO 0   ', 115.0000,1,   1,   4,   1,1.01321399, -78.759191, 1.10000, 0.90000, 1.10000, 0.90000
  160,'SPRINGFIEL~6', 115.0000,1,   1,   4,   1,1.02604091, -76.961417, 1.10000, 0.90000, 1.10000, 0.90000
  161,'SPRINGFIEL~7',  13.8000,2,   1,   4,   1,1.03999996, -75.182057, 1.10000, 0.90000, 1.10000, 0.90000
  162,'CONGERVILL~1', 115.0000,1,   1,   2,   1,1.00303304, -77.681784, 1.10000, 0.90000, 1.10000, 0.90000
  163,'CHAMPAIGN ~1', 115.0000,1,   1,   5,   1,1.01517987, -83.445179, 1.10000, 0.90000, 1.10000, 0.90000
  164,'CHAMPAIGN ~2',  13.8000,1,   1,   5,   1,1.01517987, -83.445179, 1.10000, 0.90000, 1.10000, 0.90000
  165,'CHAMPAIGN ~3',  13.8000,1,   1,   5,   1,1.01517987, -83.445179, 1.10000, 0.90000, 1.10000, 0.90000
  166,'CHAMPAIGN ~4',  13.8000,1,   1,   5,   1,1.01517987, -83.445179, 1.10000, 0.90000, 1.10000, 0.90000
  167,'CHAMPAIGN ~5',  13.8000,2,   1,   5,   1,1.02462316, -83.167532, 1.10000, 0.90000, 1.10000, 0.90000
  168,'CHAMPAIGN ~6',  13.8000,1,   1,   5,   1,1.01517987, -83.445179, 1.10000, 0.90000, 1.10000, 0.90000
  169,'CHAMPAIGN ~7',  13.8000,1,   1,   5,   1,1.01517987, -83.445179, 1.10000, 0.90000, 1.10000, 0.90000
  170,'CHAMPAIGN ~8',  13.8000,2,   1,   5,   1,1.03293145, -82.910259, 1.10000, 0.90000, 1.10000, 0.90000
  171,'FISHER 0    ', 115.0000,1,   1,   6,   1,1.01716411, -81.433525, 1.10000, 0.90000, 1.10000, 0.90000
  172,'HOMER 0     ', 115.0000,1,   1,   5,   1,1.02103615, -83.138606, 1.10000, 0.90000, 1.10000, 0.90000
  173,'TUSCOLA 1 0 ', 115.0000,1,   1,   5,   1,1.01448488, -83.132964, 1.10000, 0.90000, 1.10000, 0.90000
  174,'WHITE HEAT~1', 115.0000,1,   1,   5,   1,1.02260852, -81.632085, 1.10000, 0.90000, 1.10000, 0.90000
  175,'TOLONO 0    ', 115.0000,1,   1,   5,   1,1.01265883, -83.563936, 1.10000, 0.90000, 1.10000, 0.90000
  176,'SPRINGFIEL~5', 115.0000,1,   1,   3,   1,1.02188671, -76.161882, 1.10000, 0.90000, 1.10000, 0.90000
  177,'MACKINAW 0  ', 115.0000,1,   1,   7,   1,1.00692499, -81.234233, 1.10000, 0.90000, 1.10000, 0.90000
  178,'URBANA 1 0  ', 230.0000,1,   1,   5,   1,1.02250123, -78.754970, 1.10000, 0.90000, 1.10000, 0.90000
  179,'URBANA 1 1  ', 115.0000,1,   1,   5,   1,1.02119982, -81.756183, 1.10000, 0.90000, 1.10000, 0.90000
  180,'SAINT JOSE~1', 115.0000,1,   1,   5,   1,1.02064753, -82.933543, 1.10000, 0.90000, 1.10000, 0.90000
  181,'SPRINGFIEL~2', 115.0000,1,   1,   4,   1,1.02508080, -76.846581, 1.10000, 0.90000, 1.10000, 0.90000
  182,'SPRINGFIEL~3',  13.8000,2,   1,   4,   1,1.03999996, -74.074576, 1.10000, 0.90000, 1.10000, 0.90000
  183,'SPRINGFIEL~4',  13.8000,2,   1,   4,   1,1.03949296, -75.243065, 1.10000, 0.90000, 1.10000, 0.90000
  184,'MONTICELLO 0', 115.0000,1,   1,   5,   1,1.02401340, -81.100266, 1.10000, 0.90000, 1.10000, 0.90000
  185,'AUBURN 0    ', 115.0000,1,   1,   3,   1,1.02170670, -76.191566, 1.10000, 0.90000, 1.10000, 0.90000
  186,'HOPEDALE 1 0', 115.0000,1,   1,   2,   1,1.01147103, -78.248027, 1.10000, 0.90000, 1.10000, 0.90000
  187,'CLINTON 1 0 ', 230.0000,1,   1,   7,   1,1.03551137, -73.360699, 1.10000, 0.90000, 1.10000, 0.90000
  188,'CLINTON 1 1 ', 115.0000,1,   1,   7,   1,1.02700865, -77.579850, 1.10000, 0.90000, 1.10000, 0.90000
  189,'CLINTON 1 2 ',  13.8000,3,   1,   7,   1,1.03999996, -71.001565, 1.10000, 0.90000, 1.10000, 0.90000
  190,'MAHOMET 0   ', 115.0000,1,   1,   6,   1,1.01453686, -82.379690, 1.10000, 0.90000, 1.10000, 0.90000
  191,'VILLA GROV~1', 115.0000,1,   1,   5,   1,1.02561593, -80.276081, 1.10000, 0.90000, 1.10000, 0.90000
  192,'BLOOMINGTO~1', 115.0000,1,   1,   7,   1,0.99366742, -81.390692, 1.10000, 0.90000, 1.10000, 0.90000
  193,'PEORIA 1 0  ', 115.0000,1,   1,   2,   1,0.99592751, -77.088063, 1.10000, 0.90000, 1.10000, 0.90000
  194,'SPRINGFIEL~1', 115.0000,1,   1,   3,   1,1.03020918, -75.964298, 1.10000, 0.90000, 1.10000, 0.90000
  195,'GIBSON CIT~1', 115.0000,1,   1,   6,   1,1.02350914, -79.833444, 1.10000, 0.90000, 1.10000, 0.90000
  196,'GIBSON CIT~2',  13.8000,1,   1,   6,   1,1.02350914, -79.833444, 1.10000, 0.90000, 1.10000, 0.90000
  197,'GIBSON CIT~3',  13.8000,2,   1,   6,   1,1.03999996, -77.759668, 1.10000, 0.90000, 1.10000, 0.90000
  198,'MAPLETON 0  ', 115.0000,1,   1,   2,   1,1.00535619, -76.199592, 1.10000, 0.90000, 1.10000, 0.90000
  199,'GIFFORD 0   ', 115.0000,1,   1,   6,   1,1.02354217, -82.713598, 1.10000, 0.90000, 1.10000, 0.90000
  200,'PETERSBURG 0', 115.0000,1,   1,   4,   1,1.01137173, -77.341913, 1.10000, 0.90000, 1.10000, 0.90000
0 / END OF BUS DATA, BEGIN LOAD DATA
    2,'1 ',1,   1,   2,    10.820,     3.084,     0.000,     0.000,     0.000,     0.000,   1,1, 0
    4,'1 ',1,   1,   4,     2.684,     0.765,     0.000,     0.000,     0.000,     0.000,   1,1, 0
    6,'1 ',1,   1,   6,    10.819,     3.084,     0.000,     0.000,     0.000,     0.000,   1,1, 0
    8,'1 ',1,   1,   2,    34.774,     9.911,     0.000,     0.000,     0.000,     0.000,   1,1, 0
   10,'1 ',1,   1,   2,    62.529,    17.821,     0.000,     0.000,     0.000,     0.000,   1,1, 0
   12,'1 ',1,   1,   4,     0.480,     0.137,     0.000,     0.000,     0.000,     0.000,   1,1, 0
   13,'1 ',1,   1,   4,     3.996,     1.139,     0.000,     0.000,     0.000,     0.000,   1,1, 0
   16,'1 ',1,   1,   4,    70.857,    20.194,     0.000,     0.000,     0.000,     0.000,   1,1, 0
   18,'1 ',1,   1,   4,     1.131,     0.322,     0.000,     0.000,     0.000,     0.000,   1,1, 0
   19,'1 ',1,   1,   4,     1.217,     0.347,     0.000,     0.000,     0.000,     0.000,   1,1, 0
   20,'1 ',1,   1,   4,     1.793,     0.511,     0.000,     0.000,     0.000,     0.000,   1,1, 0
   21,'1 ',1,   1,   4,     7.291,     2.078,     0.000,     0.000,     0.000,     0.000,   1,1, 0
   23,'1 ',1,   1,   4,     2.233,     0.637,     0.000,     0.000,     0.000,     0.000,   1,1, 0
   24,'1 ',1,   1,   4,     3.795,     1.081,     0.000,     0.000,     0.000,     0.000,   1,1, 0
   26,'1 ',1,   1,   6,     1.842,     0.525,     0.000,     0.000,     0.000,     0.000,   1,1, 0
   28,'1 ',1,   1,   4,     3.694,     1.053,     0.000,     0.000,     0.000,     0.000,   1,1, 0
   30,'1 ',1,   1,   2,    86.561,    24.670,     0.000,     0.000,     0.000,     0.000,   1,1, 0
   32,'1 ',1,   1,   7,     0.700,     0.199,     0.000,     0.000,     0.000,     0.000,   1,1, 0
   33,'1 ',1,   1,   7,     8.786,     2.504,     0.000,     0.000,     0.000,     0.000,   1,1, 0
   35,'1 ',1,   1,   4,    32.868,     9.367,     0.000,     0.000,     0.000,     0.000,   1,1, 0
   37,'1 ',1,   1,   7,     4.873,     1.389,     0.000,     0.000,     0.000,     0.000,   1,1, 0
   38,'1 ',1,   1,   7,    40.672,    11.592,     0.000,     0.000,     0.000,     0.000,   1,1, 0
   39,'1 ',1,   1,   4,     1.623,     0.462,     0.000,     0.000,     0.000,     0.000,   1,1, 0
   39,'2 ',1,   1,   4,    10.102,     2.879,     0.000,     0.000,     0.000,     0.000,   1,1, 0
   40,'1 ',1,   1,   4,     3.237,     0.923,     0.000,     0.000,     0.000,     0.000,   1,1, 0
   41,'1 ',1,   1,   5,    60.647,    17.285,     0.000,     0.000,     0.000,     0.000,   1,1, 0
   42,'1 ',1,   1,   4,     1.690,     0.482,     0.000,     0.000,     0.000,     0.000,   1,1, 0
   42,'2 ',1,   1,   4,    15.116,     4.308,     0.000,     0.000,     0.000,     0.000,   1,1, 0
   43,'1 ',1,   1,   2,     3.057,     0.871,     0.000,     0.000,     0.000,     0.000,   1,1, 0
   44,'1 ',1,   1,   4,     1.504,     0.429,     0.000,     0.000,     0.000,     0.000,   1,1, 0
   44,'2 ',1,   1,   4,     5.064,     1.443,     0.000,     0.000,     0.000,     0.000,   1,1, 0
   46,'1 ',1,   1,   7,     8.649,     2.465,     0.000,     0.000,     0.000,     0.000,   1,1, 0
   47,'1 ',1,   1,   4,     2.445,     0.697,     0.000,     0.000,     0.000,     0.000,   1,1, 0
   48,'1 ',1,   1,   6,     2.480,     0.707,     0.000,     0.000,     0.000,     0.000,   1,1, 0
   54,'1 ',1,   1,   4,     0.706,     0.201,     0.000,     0.000,     0.000,     0.000,   1,1, 0
   54,'2 ',1,   1,   4,     3.510,     1.000,     0.000,     0.000,     0.000,     0.000,   1,1, 0
   56,'1 ',1,   1,   7,     1.029,     0.293,     0.000,     0.000,     0.000,     0.000,   1,1, 0
   56,'2 ',1,   1,   7,     0.755,     0.215,     0.000,     0.000,     0.000,     0.000,   1,1, 0
   57,'1 ',1,   1,   4,     4.463,     1.272,     0.000,     0.000,     0.000,     0.000,   1,1, 0
   58,'1 ',1,   1,   7,     1.361,     0.388,     0.000,     0.000,     0.000,     0.000,   1,1, 0
   58,'2 ',1,   1,   7,     1.898,     0.541,     0.000,     0.000,     0.000,     0.000,   1,1, 0
   58,'3 ',1,   1,   7,     2.513,     0.716,     0.000,     0.000,     0.000,     0.000,   1,1, 0
   59,'1 ',1,   1,   2,     1.423,     0.405,     0.000,     0.000,     0.000,     0.000,   1,1, 0
   59,'2 ',1,   1,   2,     5.509,     1.570,     0.000,     0.000,     0.000,     0.000,   1,1, 0
   60,'1 ',1,   1,   2,     3.432,     0.978,     0.000,     0.000,     0.000,     0.000,   1,1, 0
   60,'2 ',1,   1,   2,     2.128,     0.606,     0.000,     0.000,     0.000,     0.000,   1,1, 0
   61,'1 ',1,   1,   7,    28.047,     7.993,     0.000,     0.000,     0.000,     0.000,   1,1, 0
   62,'1 ',1,   1,   4,    13.527,     3.855,     0.000,     0.000,     0.000,     0.000,   1,1, 0
   62,'2 ',1,   1,   4,    20.361,     5.803,     0.000,     0.000,     0.000,     0.000,   1,1, 0
   63,'1 ',1,   1,   4,     5.259,     1.499,     0.000,     0.000,     0.000,     0.000,   1,1, 0
   63,'2 ',1,   1,   4,     3.480,     0.992,     0.000,     0.000,     0.000,     0.000,   1,1, 0
   63,'3 ',1,   1,   4,     3.896,     1.110,     0.000,     0.000,     0.000,     0.000,   1,1, 0
   74,'1 ',1,   1,   6,    25.542,     7.279,     0.000,     0.000,     0.000,     0.000,   1,1, 0
   75,'1 ',1,   1,   2,     5.271,     1.502,     0.000,     0.000,     0.000,     0.000,   1,1, 0
   80,'1 ',1,   1,   5,     0.937,     0.267,     0.000,     0.000,     0.000,     0.000,   1,1, 0
   80,'2 ',1,   1,   5,     1.398,     0.398,     0.000,     0.000,     0.000,     0.000,   1,1, 0
   82,'1 ',1,   1,   6,     7.479,     2.132,     0.000,     0.000,     0.000,     0.000,   1,1, 0
   82,'2 ',1,   1,   6,     2.868,     0.817,     0.000,     0.000,     0.000,     0.000,   1,1, 0
   83,'1 ',1,   1,   7,     1.222,     0.348,     0.000,     0.000,     0.000,     0.000,   1,1, 0
   83,'2 ',1,   1,   7,     3.058,     0.871,     0.000,     0.000,     0.000,     0.000,   1,1, 0
   84,'1 ',1,   1,   2,     5.497,     1.567,     0.000,     0.000,     0.000,     0.000,   1,1, 0
   85,'1 ',1,   1,   4,     7.653,     2.181,     0.000,     0.000,     0.000,     0.000,   1,1, 0
   86,'1 ',1,   1,   2,    12.084,     3.444,     0.000,     0.000,     0.000,     0.000,   1,1, 0
   88,'1 ',1,   1,   3,    74.279,    21.170,     0.000,     0.000,     0.000,     0.000,   1,1, 0
   89,'1 ',1,   1,   7,    11.702,     3.335,     0.000,     0.000,     0.000,     0.000,   1,1, 0
   89,'2 ',1,   1,   7,     3.115,     0.888,     0.000,     0.000,     0.000,     0.000,   1,1, 0
   89,'3 ',1,   1,   7,     3.016,     0.859,     0.000,     0.000,     0.000,     0.000,   1,1, 0
   89,'4 ',1,   1,   7,    67.920,    19.357,     0.000,     0.000,     0.000,     0.000,   1,1, 0
   93,'1 ',1,   1,   4,     3.328,     0.949,     0.000,     0.000,     0.000,     0.000,   1,1, 0
   93,'2 ',1,   1,   4,     1.520,     0.433,     0.000,     0.000,     0.000,     0.000,   1,1, 0
   95,'1 ',1,   1,   7,     2.019,     0.575,     0.000,     0.000,     0.000,     0.000,   1,1, 0
   95,'2 ',1,   1,   7,     0.997,     0.284,     0.000,     0.000,     0.000,     0.000,   1,1, 0
   95,'3 ',1,   1,   7,     1.076,     0.307,     0.000,     0.000,     0.000,     0.000,   1,1, 0
   96,'1 ',1,   1,   7,     4.034,     1.150,     0.000,     0.000,     0.000,     0.000,   1,1, 0
   97,'1 ',1,   1,   2,     1.233,     0.351,     0.000,     0.000,     0.000,     0.000,   1,1, 0
   97,'2 ',1,   1,   2,     1.055,     0.301,     0.000,     0.000,     0.000,     0.000,   1,1, 0
   97,'3 ',1,   1,   2,     8.449,     2.408,     0.000,     0.000,     0.000,     0.000,   1,1, 0
   99,'1 ',1,   1,   2,    17.824,     5.080,     0.000,     0.000,     0.000,     0.000,   1,1, 0
  100,'1 ',1,   1,   5,    59.152,    16.858,     0.000,     0.000,     0.000,     0.000,   1,1, 0
  101,'1 ',1,   1,   2,     0.761,     0.217,     0.000,     0.000,     0.000,     0.000,   1,1, 0
  106,'1 ',1,   1,   7,     2.808,     0.800,     0.000,     0.000,     0.000,     0.000,   1,1, 0
  107,'1 ',1,   1,   7,    71.719,    20.440,     0.000,     0.000,     0.000,     0.000,   1,1, 0
  108,'1 ',1,   1,   2,     0.776,     0.221,     0.000,     0.000,     0.000,     0.000,   1,1, 0
  108,'2 ',1,   1,   2,     6.583,     1.876,     0.000,     0.000,     0.000,     0.000,   1,1, 0
  108,'3 ',1,   1,   2,     6.439,     1.835,     0.000,     0.000,     0.000,     0.000,   1,1, 0
  109,'1 ',1,   1,   4,     2.498,     0.712,     0.000,     0.000,     0.000,     0.000,   1,1, 0
  109,'2 ',1,   1,   4,     5.666,     1.615,     0.000,     0.000,     0.000,     0.000,   1,1, 0
  110,'1 ',1,   1,   2,    15.907,     4.534,     0.000,     0.000,     0.000,     0.000,   1,1, 0
  111,'1 ',1,   1,   5,    13.946,     3.975,     0.000,     0.000,     0.000,     0.000,   1,1, 0
  117,'1 ',1,   1,   2,    49.925,    14.229,     0.000,     0.000,     0.000,     0.000,   1,1, 0
  118,'1 ',1,   1,   2,     5.767,     1.644,     0.000,     0.000,     0.000,     0.000,   1,1, 0
  119,'1 ',1,   1,   2,     1.276,     0.364,     0.000,     0.000,     0.000,     0.000,   1,1, 0
  119,'2 ',1,   1,   2,    24.441,     6.966,     0.000,     0.000,     0.000,     0.000,   1,1, 0
  120,'1 ',1,   1,   4,     2.846,     0.811,     0.000,     0.000,     0.000,     0.000,   1,1, 0
  122,'1 ',1,   1,   7,     0.837,     0.239,     0.000,     0.000,     0.000,     0.000,   1,1, 0
  122,'2 ',1,   1,   7,     0.265,     0.076,     0.000,     0.000,     0.000,     0.000,   1,1, 0
  122,'3 ',1,   1,   7,    19.962,     5.689,     0.000,     0.000,     0.000,     0.000,   1,1, 0
  129,'1 ',1,   1,   7,   105.401,    30.039,     0.000,     0.000,     0.000,     0.000,   1,1, 0
  130,'1 ',1,   1,   7,     6.004,     1.711,     0.000,     0.000,     0.000,     0.000,   1,1, 0
  131,'1 ',1,   1,   2,    44.322,    12.632,     0.000,     0.000,     0.000,     0.000,   1,1, 0
  132,'1 ',1,   1,   2,     2.221,     0.633,     0.000,     0.000,     0.000,     0.000,   1,1, 0
  132,'2 ',1,   1,   2,     2.260,     0.644,     0.000,     0.000,     0.000,     0.000,   1,1, 0
  132,'3 ',1,   1,   2,    35.014,     9.979,     0.000,     0.000,     0.000,     0.000,   1,1, 0
  137,'1 ',1,   1,   4,     1.836,     0.523,     0.000,     0.000,     0.000,     0.000,   1,1, 0
  138,'1 ',1,   1,   6,     2.849,     0.812,     0.000,     0.000,     0.000,     0.000,   1,1, 0
  139,'1 ',1,   1,   2,     8.322,     2.372,     0.000,     0.000,     0.000,     0.000,   1,1, 0
  139,'2 ',1,   1,   2,     1.699,     0.484,     0.000,     0.000,     0.000,     0.000,   1,1, 0
  140,'1 ',1,   1,   2,    12.029,     3.428,     0.000,     0.000,     0.000,     0.000,   1,1, 0
  141,'1 ',1,   1,   2,     2.084,     0.594,     0.000,     0.000,     0.000,     0.000,   1,1, 0
  142,'1 ',1,   1,   2,    54.588,    15.558,     0.000,     0.000,     0.000,     0.000,   1,1, 0
  143,'1 ',1,   1,   5,    42.359,    12.072,     0.000,     0.000,     0.000,     0.000,   1,1, 0
  144,'1 ',1,   1,   2,    13.264,     3.780,     0.000,     0.000,     0.000,     0.000,   1,1, 0
  145,'1 ',1,   1,   3,     2.262,     0.645,     0.000,     0.000,     0.000,     0.000,   1,1, 0
  145,'2 ',1,   1,   3,    24.148,     6.882,     0.000,     0.000,     0.000,     0.000,   1,1, 0
  148,'1 ',1,   1,   2,    46.914,    13.370,     0.000,     0.000,     0.000,     0.000,   1,1, 0
  157,'1 ',1,   1,   2,    21.617,     6.161,     0.000,     0.000,     0.000,     0.000,   1,1, 0
  158,'1 ',1,   1,   4,    14.193,     4.045,     0.000,     0.000,     0.000,     0.000,   1,1, 0
  159,'1 ',1,   1,   4,     2.198,     0.626,     0.000,     0.000,     0.000,     0.000,   1,1, 0
  162,'1 ',1,   1,   2,     2.120,     0.604,     0.000,     0.000,     0.000,     0.000,   1,1, 0
  163,'1 ',1,   1,   5,    72.463,    20.652,     0.000,     0.000,     0.000,     0.000,   1,1, 0
  171,'1 ',1,   1,   6,     5.648,     1.610,     0.000,     0.000,     0.000,     0.000,   1,1, 0
  171,'2 ',1,   1,   6,     5.165,     1.472,     0.000,     0.000,     0.000,     0.000,   1,1, 0
  172,'1 ',1,   1,   5,     1.706,     0.486,     0.000,     0.000,     0.000,     0.000,   1,1, 0
  172,'2 ',1,   1,   5,     3.611,     1.029,     0.000,     0.000,     0.000,     0.000,   1,1, 0
  172,'3 ',1,   1,   5,     3.189,     0.909,     0.000,     0.000,     0.000,     0.000,   1,1, 0
  173,'1 ',1,   1,   5,     1.596,     0.455,     0.000,     0.000,     0.000,     0.000,   1,1, 0
  173,'2 ',1,   1,   5,    12.186,     3.473,     0.000,     0.000,     0.000,     0.000,   1,1, 0
  174,'1 ',1,   1,   5,     2.439,     0.695,     0.000,     0.000,     0.000,     0.000,   1,1, 0
  174,'2 ',1,   1,   5,     1.939,     0.553,     0.000,     0.000,     0.000,     0.000,   1,1, 0
  175,'1 ',1,   1,   5,     3.362,     0.958,     0.000,     0.000,     0.000,     0.000,   1,1, 0
  175,'2 ',1,   1,   5,     8.200,     2.337,     0.000,     0.000,     0.000,     0.000,   1,1, 0
  176,'1 ',1,   1,   3,    28.620,     8.157,     0.000,     0.000,     0.000,     0.000,   1,1, 0
  177,'1 ',1,   1,   7,     1.918,     0.546,     0.000,     0.000,     0.000,     0.000,   1,1, 0
  177,'2 ',1,   1,   7,     4.178,     1.191,     0.000,     0.000,     0.000,     0.000,   1,1, 0
  177,'3 ',1,   1,   7,     9.306,     2.652,     0.000,     0.000,     0.000,     0.000,   1,1, 0
  179,'1 ',1,   1,   5,    37.349,    10.644,     0.000,     0.000,     0.000,     0.000,   1,1, 0
  180,'1 ',1,   1,   5,    12.252,     3.492,     0.000,     0.000,     0.000,     0.000,   1,1, 0
  181,'1 ',1,   1,   4,     2.277,     0.649,     0.000,     0.000,     0.000,     0.000,   1,1, 0
  181,'2 ',1,   1,   4,    73.683,    21.000,     0.000,     0.000,     0.000,     0.000,   1,1, 0
  184,'1 ',1,   1,   5,     0.855,     0.244,     0.000,     0.000,     0.000,     0.000,   1,1, 0
  184,'2 ',1,   1,   5,     1.490,     0.425,     0.000,     0.000,     0.000,     0.000,   1,1, 0
  184,'3 ',1,   1,   5,    14.571,     4.153,     0.000,     0.000,     0.000,     0.000,   1,1, 0
  185,'1 ',1,   1,   3,     2.857,     0.814,     0.000,     0.000,     0.000,     0.000,   1,1, 0
  185,'2 ',1,   1,   3,     1.701,     0.485,     0.000,     0.000,     0.000,     0.000,   1,1, 0
  185,'3 ',1,   1,   3,    11.685,     3.330,     0.000,     0.000,     0.000,     0.000,   1,1, 0
  186,'1 ',1,   1,   2,     3.082,     0.878,     0.000,     0.000,     0.000,     0.000,   1,1, 0
  190,'1 ',1,   1,   6,    22.857,     6.514,     0.000,     0.000,     0.000,     0.000,   1,1, 0
  191,'1 ',1,   1,   5,     1.159,     0.330,     0.000,     0.000,     0.000,     0.000,   1,1, 0
  191,'2 ',1,   1,   5,     4.062,     1.158,     0.000,     0.000,     0.000,     0.000,   1,1, 0
  191,'3 ',1,   1,   5,     0.512,     0.146,     0.000,     0.000,     0.000,     0.000,   1,1, 0
  191,'4 ',1,   1,   5,     5.703,     1.625,     0.000,     0.000,     0.000,     0.000,   1,1, 0
  192,'1 ',1,   1,   7,    71.966,    20.510,     0.000,     0.000,     0.000,     0.000,   1,1, 0
  193,'1 ',1,   1,   2,    32.212,     9.180,     0.000,     0.000,     0.000,     0.000,   1,1, 0
  194,'1 ',1,   1,   3,    56.567,    16.122,     0.000,     0.000,     0.000,     0.000,   1,1, 0
  198,'1 ',1,   1,   2,     7.872,     2.243,     0.000,     0.000,     0.000,     0.000,   1,1, 0
  199,'1 ',1,   1,   6,     3.057,     0.871,     0.000,     0.000,     0.000,     0.000,   1,1, 0
  199,'2 ',1,   1,   6,     2.736,     0.780,     0.000,     0.000,     0.000,     0.000,   1,1, 0
  200,'1 ',1,   1,   4,     1.123,     0.320,     0.000,     0.000,     0.000,     0.000,   1,1, 0
  200,'2 ',1,   1,   4,     1.506,     0.429,     0.000,     0.000,     0.000,     0.000,   1,1, 0
  200,'3 ',1,   1,   4,    12.163,     3.466,     0.000,     0.000,     0.000,     0.000,   1,1, 0
0 / END OF LOAD DATA, BEGIN FIXED SHUNT DATA
0 / END OF FIXED SHUNT DATA, BEGIN GENERATOR DATA
   49,'1 ',     4.530,     2.110,     2.110,    -0.550,1.04000,    0,     5.440,   0.00000,   0.31650,   0.00000,   0.00000,1.00000,1,  100.0,     4.530,     1.360,   1,1.0000,   0,1.0000,   0,1.0000,   0,1.0000,0, 1.0000
   50,'1 ',     4.530,     2.110,     2.110,    -0.550,1.04000,    0,     5.440,   0.00000,   0.12950,   0.00000,   0.00000,1.00000,1,  100.0,     4.530,     1.360,   1,1.0000,   0,1.0000,   0,1.0000,   0,1.0000,0, 1.0000
   51,'1 ',     4.530,     2.110,     2.110,    -0.550,1.04000,    0,     5.440,   0.00000,   0.15200,   0.00000,   0.00000,1.00000,1,  100.0,     4.530,     1.360,   1,1.0000,   0,1.0000,   0,1.0000,   0,1.0000,0, 1.0000
   52,'1 ',     4.530,     2.110,     2.110,    -0.550,1.04000,    0,     5.440,   0.00000,   0.15350,   0.00000,   0.00000,1.00000,1,  100.0,     4.530,     1.360,   1,1.0000,   0,1.0000,   0,1.0000,   0,1.0000,0, 1.0000
   53,'1 ',     9.070,     2.479,     4.230,    -1.110,1.04000,    0,    10.880,   0.00000,   0.21750,   0.00000,   0.00000,1.00000,1,  100.0,     9.070,     2.720,   1,1.0000,   0,1.0000,   0,1.0000,   0,1.0000,0, 1.0000
   65,'1 ',     4.000,    11.008,    32.040,   -21.660,1.04000,    0,   180.480,   0.00000,   0.13350,   0.00000,   0.00000,1.00000,1,  100.0,   150.400,    45.120,   1,1.0000,   0,1.0000,   0,1.0000,   0,1.0000,0, 1.0000
   67,'1 ',     4.700,     1.683,     2.190,    -0.570,1.04000,    0,     5.640,   0.00000,   0.29190,   0.00000,   0.00000,1.00000,1,  100.0,     4.700,     1.410,   1,1.0000,   0,1.0000,   0,1.0000,   0,1.0000,0, 1.0000
   68,'1 ',    27.920,     1.514,    13.010,    -3.410,1.04000,    0,    33.500,   0.00000,   0.09040,   0.00000,   0.00000,1.00000,1,  100.0,    27.920,     8.380,   1,1.0000,   0,1.0000,   0,1.0000,   0,1.0000,0, 1.0000
   69,'1 ',    27.920,     2.626,    13.010,    -3.410,1.04000,    0,    33.500,   0.00000,   0.28580,   0.00000,   0.00000,1.00000,1,  100.0,    27.920,     8.380,   1,1.0000,   0,1.0000,   0,1.0000,   0,1.0000,0, 1.0000
   70,'1 ',    27.920,     1.460,    13.010,    -3.410,1.04000,    0,    33.500,   0.00000,   0.18540,   0.00000,   0.00000,1.00000,1,  100.0,    27.920,     8.380,   1,1.0000,   0,1.0000,   0,1.0000,   0,1.0000,0, 1.0000
   71,'1 ',    27.920,     3.256,    13.010,    -3.410,1.04000,    0,    33.500,   0.00000,   0.15650,   0.00000,   0.00000,1.00000,1,  100.0,    27.920,     8.380,   1,1.0000,   0,1.0000,   0,1.0000,   0,1.0000,0, 1.0000
   72,'1 ',    27.920,     3.507,    13.010,    -3.410,1.04000,    0,    33.500,   0.00000,   0.17590,   0.00000,   0.00000,1.00000,1,  100.0,    27.920,     8.380,   1,1.0000,   0,1.0000,   0,1.0000,   0,1.0000,0, 1.0000
   73,'1 ',    27.920,     1.536,    13.010,    -3.410,1.04000,    0,    33.500,   0.00000,   0.24250,   0.00000,   0.00000,1.00000,1,  100.0,    27.920,     8.380,   1,1.0000,   0,1.0000,   0,1.0000,   0,1.0000,0, 1.0000
   76,'1 ',     1.200,     2.040,     2.040,    -0.440,1.04000,    0,     4.800,   0.00000,   0.20816,   0.00000,   0.00000,1.00000,1,  100.0,     4.000,     1.200,   1,1.0000,   0,1.0000,   0,1.0000,   0,1.0000,0, 1.0000
   77,'1 ',     0.720,     1.160,     1.220,    -0.270,1.04000,    0,     2.880,   0.00000,   0.14170,   0.00000,   0.00000,1.00000,1,  100.0,     2.400,     0.720,   1,1.0000,   0,1.0000,   0,1.0000,   0,1.0000,0, 1.0000
   78,'1 ',     5.400,     4.176,     9.160,    -2.000,1.04000,    0,    21.600,   0.00000,   0.17850,   0.00000,   0.00000,1.00000,0,  100.0,    18.000,     5.400,   1,1.0000,   0,1.0000,   0,1.0000,   0,1.0000,0, 1.0000
   79,'1 ',     5.400,     3.480,     9.160,    -2.000,1.04000,    0,    21.600,   0.00000,   0.14900,   0.00000,   0.00000,1.00000,0,  100.0,    18.000,     5.400,   1,1.0000,   0,1.0000,   0,1.0000,   0,1.0000,0, 1.0000
   90,'1 ',     0.960,     1.081,     1.630,    -0.360,1.04000,    0,     3.840,   0.00000,   0.13550,   0.00000,   0.00000,1.00000,1,  100.0,     3.200,     0.960,   1,1.0000,   0,1.0000,   0,1.0000,   0,1.0000,0, 1.0000
   91,'1 ',     1.500,     2.550,     2.550,    -0.550,1.04000,    0,     6.000,   0.00000,   0.15790,   0.00000,   0.00000,1.00000,1,  100.0,     5.000,     1.500,   1,1.0000,   0,1.0000,   0,1.0000,   0,1.0000,0, 1.0000
   92,'1 ',     1.890,     3.210,     3.210,    -0.700,1.04000,    0,     7.560,   0.00000,   0.33590,   0.00000,   0.00000,1.00000,0,  100.0,     6.300,     1.890,   1,1.0000,   0,1.0000,   0,1.0000,   0,1.0000,0, 1.0000
   94,'1 ',    18.000,     1.633,     8.390,    -2.200,1.04000,    0,    21.600,   0.00000,   0.15520,   0.00000,   0.00000,1.00000,1,  100.0,    18.000,     5.400,   1,1.0000,   0,1.0000,   0,1.0000,   0,1.0000,0, 1.0000
  104,'1 ',    17.900,    15.491,    21.090,   -14.260,1.04000,    0,   118.800,   0.00000,   0.09590,   0.00000,   0.00000,1.00000,1,  100.0,    99.000,    29.700,   1,1.0000,   0,1.0000,   0,1.0000,   0,1.0000,0, 1.0000
  105,'1 ',    33.600,    23.082,    42.170,   -28.510,1.04000,    0,   237.600,   0.00000,   0.23030,   0.00000,   0.00000,1.00000,1,  100.0,   198.000,    59.400,   1,1.0000,   0,1.0000,   0,1.0000,   0,1.0000,0, 1.0000
  114,'1 ',     0.400,     0.360,     0.360,    -0.240,1.04000,    0,     2.040,   0.00000,   0.19270,   0.00000,   0.00000,1.00000,1,  100.0,     1.700,     0.510,   1,1.0000,   0,1.0000,   0,1.0000,   0,1.0000,0, 1.0000
  115,'1 ',    47.700,    30.987,    31.950,   -21.600,1.04000,    0,   180.000,   0.00000,   0.15530,   0.00000,   0.00000,1.00000,1,  100.0,   150.000,    45.000,   1,1.0000,   0,1.0000,   0,1.0000,   0,1.0000,0, 1.0000
  125,'1 ',   150.000,    21.950,    60.600,   -15.870,1.04000,    0,   156.060,   0.00000,   0.26300,   0.00000,   0.00000,1.00000,1,  100.0,   150.000,    39.020,   1,1.0000,   0,1.0000,   0,1.0000,   0,1.0000,0, 1.0000
  126,'1 ',   150.000,    31.115,    60.600,   -15.870,1.04000,    0,   156.060,   0.00000,   0.11410,   0.00000,   0.00000,1.00000,1,  100.0,   150.000,    39.020,   1,1.0000,   0,1.0000,   0,1.0000,   0,1.0000,0, 1.0000
  127,'1 ',   150.000,    55.933,    60.600,   -15.870,1.04000,    0,   156.060,   0.00000,   0.09060,   0.00000,   0.00000,1.00000,1,  100.0,   150.000,    39.020,   1,1.0000,   0,1.0000,   0,1.0000,   0,1.0000,0, 1.0000
  135,'1 ',   196.416,    51.620,   208.020,   -54.460,1.04000,    0,   535.680,   0.00000,   0.25390,   0.00000,   0.00000,1.00000,1,  100.0,   446.400,   133.920,   1,1.0000,   0,1.0000,   0,1.0000,   0,1.0000,0, 1.0000
  136,'1 ',   222.551,    61.527,   208.020,   -54.460,1.04000,    0,   535.680,   0.00000,   0.20220,   0.00000,   0.00000,1.00000,1,  100.0,   446.400,   133.920,   1,1.0000,   0,1.0000,   0,1.0000,   0,1.0000,0, 1.0000
  147,'1 ',    13.400,    21.410,    21.410,   -14.470,1.04000,    0,   120.600,   0.00000,   0.34930,   0.00000,   0.00000,1.00000,1,  100.0,   100.500,    30.150,   1,1.0000,   0,1.0000,   0,1.0000,   0,1.0000,0, 1.0000
  151,'1 ',     5.400,     1.051,     2.520,    -0.660,1.04000,    0,     6.480,   0.00000,   0.14830,   0.00000,   0.00000,1.00000,1,  100.0,     5.400,     1.620,   1,1.0000,   0,1.0000,   0,1.0000,   0,1.0000,0, 1.0000
  152,'1 ',    77.220,     7.704,    35.990,    -9.420,1.04000,    0,    92.670,   0.00000,   0.22960,   0.00000,   0.00000,1.00000,1,  100.0,    77.220,    23.170,   1,1.0000,   0,1.0000,   0,1.0000,   0,1.0000,0, 1.0000
  153,'1 ',    77.220,     6.762,    35.990,    -9.420,1.04000,    0,    92.670,   0.00000,   0.22210,   0.00000,   0.00000,1.00000,1,  100.0,    77.220,    23.170,   1,1.0000,   0,1.0000,   0,1.0000,   0,1.0000,0, 1.0000
  154,'1 ',    77.220,     8.043,    35.990,    -9.420,1.04000,    0,    92.670,   0.00000,   0.19600,   0.00000,   0.00000,1.00000,1,  100.0,    77.220,    23.170,   1,1.0000,   0,1.0000,   0,1.0000,   0,1.0000,0, 1.0000
  155,'1 ',    77.220,     8.118,    35.990,    -9.420,1.04000,    0,    92.670,   0.00000,   0.14960,   0.00000,   0.00000,1.00000,1,  100.0,    77.220,    23.170,   1,1.0000,   0,1.0000,   0,1.0000,   0,1.0000,0, 1.0000
  161,'1 ',    41.580,    18.003,    70.550,   -15.380,1.04000,    0,   166.320,   0.00000,   0.25290,   0.00000,   0.00000,1.00000,1,  100.0,   138.600,    41.580,   1,1.0000,   0,1.0000,   0,1.0000,   0,1.0000,0, 1.0000
  164,'1 ',     3.600,     6.110,     6.110,    -1.330,1.04000,    0,    14.400,   0.00000,   0.12260,   0.00000,   0.00000,1.00000,0,  100.0,    12.000,     3.600,   1,1.0000,   0,1.0000,   0,1.0000,   0,1.0000,0, 1.0000
  165,'1 ',     7.800,    13.230,    13.230,    -2.890,1.04000,    0,    31.200,   0.00000,   0.20340,   0.00000,   0.00000,1.00000,0,  100.0,    26.000,     7.800,   1,1.0000,   0,1.0000,   0,1.0000,   0,1.0000,0, 1.0000
  166,'1 ',     2.820,     4.780,     4.780,    -1.040,1.04000,    0,    11.280,   0.00000,   0.13940,   0.00000,   0.00000,1.00000,0,  100.0,     9.400,     2.820,   1,1.0000,   0,1.0000,   0,1.0000,   0,1.0000,0, 1.0000
  167,'1 ',     2.820,     4.780,     4.780,    -1.040,1.04000,    0,    11.280,   0.00000,   0.28230,   0.00000,   0.00000,1.00000,1,  100.0,     9.400,     2.820,   1,1.0000,   0,1.0000,   0,1.0000,   0,1.0000,0, 1.0000
  168,'1 ',     2.820,     4.780,     4.780,    -1.040,1.04000,    0,    11.280,   0.00000,   0.12050,   0.00000,   0.00000,1.00000,0,  100.0,     9.400,     2.820,   1,1.0000,   0,1.0000,   0,1.0000,   0,1.0000,0, 1.0000
  169,'1 ',     2.820,     4.780,     4.780,    -1.040,1.04000,    0,    11.280,   0.00000,   0.19670,   0.00000,   0.00000,1.00000,0,  100.0,     9.400,     2.820,   1,1.0000,   0,1.0000,   0,1.0000,   0,1.0000,0, 1.0000
  170,'1 ',     2.820,     4.780,     4.780,    -1.040,1.04000,    0,    11.280,   0.00000,   0.11190,   0.00000,   0.00000,1.00000,1,  100.0,     9.400,     2.820,   1,1.0000,   0,1.0000,   0,1.0000,   0,1.0000,0, 1.0000
  182,'1 ',    17.500,     4.984,     8.160,    -2.140,1.04000,    0,    21.000,   0.00000,   0.13110,   0.00000,   0.00000,1.00000,1,  100.0,    17.500,     5.250,   1,1.0000,   0,1.0000,   0,1.0000,   0,1.0000,0, 1.0000
  183,'1 ',    26.600,    12.400,    12.400,    -3.250,1.04000,    0,    31.920,   0.00000,   0.13850,   0.00000,   0.00000,1.00000,1,  100.0,    26.600,     7.980,   1,1.0000,   0,1.0000,   0,1.0000,   0,1.0000,0, 1.0000
  189,'1 ',   569.142,    49.565,   209.450,   -46.670,1.04000,    0,   682.980,   0.00000,   0.15120,   0.00000,   0.00000,1.00000,1,  100.0,   569.150,   170.750,   1,1.0000,   0,1.0000,   0,1.0000,   0,1.0000,0, 1.0000
  196,'1 ',    20.250,    18.778,    34.360,    -7.490,1.04000,    0,    81.000,   0.00000,   0.17730,   0.00000,   0.00000,1.00000,0,  100.0,    67.500,    20.250,   1,1.0000,   0,1.0000,   0,1.0000,   0,1.0000,0, 1.0000
  197,'1 ',    20.250,     9.019,    34.360,    -7.490,1.04000,    0,    81.000,   0.00000,   1.00000,   0.00000,   0.00000,1.00000,1,  100.0,    67.500,    20.250,   1,1.0000,   0,1.0000,   0,1.0000,   0,1.0000,0, 1.0000
0 / END OF GENERATOR DATA, BEGIN BRANCH DATA
     2,     1,'1 ',6.73057E-4,3.33871E-3,0.00000E-1, 100.00,   0.00,   0.00,  0.00000,  0.00000,  0.00000,  0.00000, 1,1,   0.00,   1,1.0000,   0,1.0000,   0,1.0000,   0,1.0000
     1,   119,'1 ',1.85418E-2,1.19758E-1,2.28477E-2, 221.10,   0.00,   0.00,  0.00000,  0.00000,  0.00000,  0.00000, 1,1,   0.00,   1,1.0000,   0,1.0000,   0,1.0000,   0,1.0000
   124,     1,'1 ',5.61527E-3,3.62680E-2,6.91926E-3, 221.10,   0.00,   0.00,  0.00000,  0.00000,  0.00000,  0.00000, 1,1,   0.00,   1,1.0000,   0,1.0000,   0,1.0000,   0,1.0000
   193,     1,'1 ',4.25792E-3,2.75012E-2,5.24671E-3, 221.10,   0.00,   0.00,  0.00000,  0.00000,  0.00000,  0.00000, 1,1,   0.00,   1,1.0000,   0,1.0000,   0,1.0000,   0,1.0000
     4,     3,'1 ',5.72913E-4,3.30300E-3,0.00000E-1, 100.00,   0.00,   0.00,  0.00000,  0.00000,  0.00000,  0.00000, 1,1,   0.00,   1,1.0000,   0,1.0000,   0,1.0000,   0,1.0000
    57,     3,'1 ',8.50453E-3,5.80981E-2,9.88457E-3, 221.10,   0.00,   0.00,  0.00000,  0.00000,  0.00000,  0.00000, 1,1,   0.00,   1,1.0000,   0,1.0000,   0,1.0000,   0,1.0000
     3,   137,'1 ',5.88885E-3,3.80350E-2,7.25638E-3, 221.10,   0.00,   0.00,  0.00000,  0.00000,  0.00000,  0.00000, 1,1,   0.00,   1,1.0000,   0,1.0000,   0,1.0000,   0,1.0000
     6,     5,'1 ',6.93558E-4,3.33744E-3,0.00000E-1, 100.00,   0.00,   0.00,  0.00000,  0.00000,  0.00000,  0.00000, 1,1,   0.00,   1,1.0000,   0,1.0000,   0,1.0000,   0,1.0000
    48,     5,'1 ',6.24597E-3,4.35129E-2,7.11307E-3, 221.10,   0.00,   0.00,  0.00000,  0.00000,  0.00000,  0.00000, 1,1,   0.00,   1,1.0000,   0,1.0000,   0,1.0000,   0,1.0000
     5,    64,'1 ',7.87689E-3,5.48749E-2,8.97041E-3, 221.10,   0.00,   0.00,  0.00000,  0.00000,  0.00000,  0.00000, 1,1,   0.00,   1,1.0000,   0,1.0000,   0,1.0000,   0,1.0000
     8,     7,'1 ',6.33898E-4,3.18908E-3,0.00000E-1, 100.00,   0.00,   0.00,  0.00000,  0.00000,  0.00000,  0.00000, 1,1,   0.00,   1,1.0000,   0,1.0000,   0,1.0000,   0,1.0000
     7,    86,'1 ',3.75602E-3,2.42595E-2,4.62826E-3, 221.10,   0.00,   0.00,  0.00000,  0.00000,  0.00000,  0.00000, 1,1,   0.00,   1,1.0000,   0,1.0000,   0,1.0000,   0,1.0000
     7,   101,'1 ',3.59687E-3,2.32315E-2,4.43214E-3, 221.10,   0.00,   0.00,  0.00000,  0.00000,  0.00000,  0.00000, 1,1,   0.00,   1,1.0000,   0,1.0000,   0,1.0000,   0,1.0000
     7,   148,'1 ',8.66716E-3,5.59797E-2,1.06799E-2, 221.10,   0.00,   0.00,  0.00000,  0.00000,  0.00000,  0.00000, 1,1,   0.00,   1,1.0000,   0,1.0000,   0,1.0000,   0,1.0000
    10,     9,'1 ',5.85063E-4,3.96652E-3,0.00000E-1, 100.00,   0.00,   0.00,  0.00000,  0.00000,  0.00000,  0.00000, 1,1,   0.00,   1,1.0000,   0,1.0000,   0,1.0000,   0,1.0000
     9,   124,'1 ',8.06902E-3,5.51230E-2,9.37839E-3, 221.10,   0.00,   0.00,  0.00000,  0.00000,  0.00000,  0.00000, 1,1,   0.00,   1,1.0000,   0,1.0000,   0,1.0000,   0,1.0000
   131,     9,'1 ',4.13882E-3,2.67319E-2,5.09995E-3, 221.10,   0.00,   0.00,  0.00000,  0.00000,  0.00000,  0.00000, 1,1,   0.00,   1,1.0000,   0,1.0000,   0,1.0000,   0,1.0000
     9,   141,'1 ',4.44559E-3,3.09705E-2,5.06275E-3, 221.10,   0.00,   0.00,  0.00000,  0.00000,  0.00000,  0.00000, 1,1,   0.00,   1,1.0000,   0,1.0000,   0,1.0000,   0,1.0000
     9,   193,'1 ',3.69525E-3,2.52439E-2,4.29489E-3, 221.10,   0.00,   0.00,  0.00000,  0.00000,  0.00000,  0.00000, 1,1,   0.00,   1,1.0000,   0,1.0000,   0,1.0000,   0,1.0000
    12,    11,'1 ',5.33505E-4,3.53278E-3,0.00000E-1, 100.00,   0.00,   0.00,  0.00000,  0.00000,  0.00000,  0.00000, 1,1,   0.00,   1,1.0000,   0,1.0000,   0,1.0000,   0,1.0000
    13,    11,'1 ',6.19088E-4,3.60638E-3,0.00000E-1, 100.00,   0.00,   0.00,  0.00000,  0.00000,  0.00000,  0.00000, 1,1,   0.00,   1,1.0000,   0,1.0000,   0,1.0000,   0,1.0000
    11,    15,'1 ',1.04075E-2,6.72204E-2,1.28244E-2, 221.10,   0.00,   0.00,  0.00000,  0.00000,  0.00000,  0.00000, 1,1,   0.00,   1,1.0000,   0,1.0000,   0,1.0000,   0,1.0000
    11,    93,'1 ',1.83938E-2,1.28141E-1,2.09473E-2, 221.10,   0.00,   0.00,  0.00000,  0.00000,  0.00000,  0.00000, 1,1,   0.00,   1,1.0000,   0,1.0000,   0,1.0000,   0,1.0000
   158,    11,'1 ',8.51933E-3,5.81992E-2,9.90177E-3, 221.10,   0.00,   0.00,  0.00000,  0.00000,  0.00000,  0.00000, 1,1,   0.00,   1,1.0000,   0,1.0000,   0,1.0000,   0,1.0000
    14,   121,'1 ',7.01262E-3,5.00985E-2,9.13368E-2, 402.36,   0.00,   0.00,  0.00000,  0.00000,  0.00000,  0.00000, 1,1,   0.00,   1,1.0000,   0,1.0000,   0,1.0000,   0,1.0000
    14,   149,'1 ',9.13264E-3,6.52439E-2,1.18949E-1, 402.36,   0.00,   0.00,  0.00000,  0.00000,  0.00000,  0.00000, 1,1,   0.00,   1,1.0000,   0,1.0000,   0,1.0000,   0,1.0000
    16,    15,'1 ',5.52965E-4,3.20024E-3,0.00000E-1, 100.00,   0.00,   0.00,  0.00000,  0.00000,  0.00000,  0.00000, 1,1,   0.00,   1,1.0000,   0,1.0000,   0,1.0000,   0,1.0000
    18,    17,'1 ',5.02930E-4,3.92604E-3,0.00000E-1, 100.00,   0.00,   0.00,  0.00000,  0.00000,  0.00000,  0.00000, 1,1,   0.00,   1,1.0000,   0,1.0000,   0,1.0000,   0,1.0000
    19,    17,'1 ',5.14285E-4,3.07858E-3,0.00000E-1, 100.00,   0.00,   0.00,  0.00000,  0.00000,  0.00000,  0.00000, 1,1,   0.00,   1,1.0000,   0,1.0000,   0,1.0000,   0,1.0000
    20,    17,'1 ',6.23304E-4,3.33885E-3,0.00000E-1, 100.00,   0.00,   0.00,  0.00000,  0.00000,  0.00000,  0.00000, 1,1,   0.00,   1,1.0000,   0,1.0000,   0,1.0000,   0,1.0000
    21,    17,'1 ',6.19771E-4,3.94003E-3,0.00000E-1, 100.00,   0.00,   0.00,  0.00000,  0.00000,  0.00000,  0.00000, 1,1,   0.00,   1,1.0000,   0,1.0000,   0,1.0000,   0,1.0000
   109,    17,'1 ',9.78939E-3,6.81983E-2,1.11484E-2, 221.10,   0.00,   0.00,  0.00000,  0.00000,  0.00000,  0.00000, 1,1,   0.00,   1,1.0000,   0,1.0000,   0,1.0000,   0,1.0000
    17,   120,'1 ',1.03160E-2,7.04727E-2,1.19899E-2, 221.10,   0.00,   0.00,  0.00000,  0.00000,  0.00000,  0.00000, 1,1,   0.00,   1,1.0000,   0,1.0000,   0,1.0000,   0,1.0000
    23,    22,'1 ',6.15964E-4,3.22174E-3,0.00000E-1, 100.00,   0.00,   0.00,  0.00000,  0.00000,  0.00000,  0.00000, 1,1,   0.00,   1,1.0000,   0,1.0000,   0,1.0000,   0,1.0000
    24,    22,'1 ',6.87456E-4,3.06686E-3,0.00000E-1, 100.00,   0.00,   0.00,  0.00000,  0.00000,  0.00000,  0.00000, 1,1,   0.00,   1,1.0000,   0,1.0000,   0,1.0000,   0,1.0000
    22,    27,'1 ',1.13789E-2,7.34942E-2,1.40213E-2, 221.10,   0.00,   0.00,  0.00000,  0.00000,  0.00000,  0.00000, 1,1,   0.00,   1,1.0000,   0,1.0000,   0,1.0000,   0,1.0000
   158,    22,'1 ',1.27015E-2,8.67693E-2,1.47626E-2, 221.10,   0.00,   0.00,  0.00000,  0.00000,  0.00000,  0.00000, 1,1,   0.00,   1,1.0000,   0,1.0000,   0,1.0000,   0,1.0000
    26,    25,'1 ',6.10053E-4,3.07070E-3,0.00000E-1, 100.00,   0.00,   0.00,  0.00000,  0.00000,  0.00000,  0.00000, 1,1,   0.00,   1,1.0000,   0,1.0000,   0,1.0000,   0,1.0000
    25,    64,'1 ',7.64278E-3,5.32439E-2,8.70379E-3, 221.10,   0.00,   0.00,  0.00000,  0.00000,  0.00000,  0.00000, 1,1,   0.00,   1,1.0000,   0,1.0000,   0,1.0000,   0,1.0000
   199,    25,'1 ',9.90935E-3,6.40028E-2,1.22105E-2, 221.10,   0.00,   0.00,  0.00000,  0.00000,  0.00000,  0.00000, 1,1,   0.00,   1,1.0000,   0,1.0000,   0,1.0000,   0,1.0000
    28,    27,'1 ',5.87363E-4,3.96375E-3,0.00000E-1, 100.00,   0.00,   0.00,  0.00000,  0.00000,  0.00000,  0.00000, 1,1,   0.00,   1,1.0000,   0,1.0000,   0,1.0000,   0,1.0000
    27,    93,'1 ',2.51719E-2,1.75362E-1,2.86664E-2, 221.10,   0.00,   0.00,  0.00000,  0.00000,  0.00000,  0.00000, 1,1,   0.00,   1,1.0000,   0,1.0000,   0,1.0000,   0,1.0000
    27,   158,'1 ',2.04286E-2,1.31945E-1,2.51726E-2, 221.10,   0.00,   0.00,  0.00000,  0.00000,  0.00000,  0.00000, 1,1,   0.00,   1,1.0000,   0,1.0000,   0,1.0000,   0,1.0000
    30,    29,'1 ',6.93832E-4,3.13121E-3,0.00000E-1, 100.00,   0.00,   0.00,  0.00000,  0.00000,  0.00000,  0.00000, 1,1,   0.00,   1,1.0000,   0,1.0000,   0,1.0000,   0,1.0000
   124,    29,'1 ',5.56114E-3,3.87420E-2,6.33316E-3, 221.10,   0.00,   0.00,  0.00000,  0.00000,  0.00000,  0.00000, 1,1,   0.00,   1,1.0000,   0,1.0000,   0,1.0000,   0,1.0000
    29,   140,'1 ',7.89540E-3,5.50038E-2,8.99148E-3, 221.10,   0.00,   0.00,  0.00000,  0.00000,  0.00000,  0.00000, 1,1,   0.00,   1,1.0000,   0,1.0000,   0,1.0000,   0,1.0000
    32,    31,'1 ',6.66645E-4,3.88361E-3,0.00000E-1, 100.00,   0.00,   0.00,  0.00000,  0.00000,  0.00000,  0.00000, 1,1,   0.00,   1,1.0000,   0,1.0000,   0,1.0000,   0,1.0000
    33,    31,'1 ',5.27695E-4,3.63861E-3,0.00000E-1, 100.00,   0.00,   0.00,  0.00000,  0.00000,  0.00000,  0.00000, 1,1,   0.00,   1,1.0000,   0,1.0000,   0,1.0000,   0,1.0000
   177,    31,'1 ',8.40589E-3,5.85602E-2,9.57284E-3, 221.10,   0.00,   0.00,  0.00000,  0.00000,  0.00000,  0.00000, 1,1,   0.00,   1,1.0000,   0,1.0000,   0,1.0000,   0,1.0000
   192,    31,'1 ',8.08769E-3,5.52505E-2,9.40009E-3, 221.10,   0.00,   0.00,  0.00000,  0.00000,  0.00000,  0.00000, 1,1,   0.00,   1,1.0000,   0,1.0000,   0,1.0000,   0,1.0000
    35,    34,'1 ',5.75392E-4,3.67378E-3,0.00000E-1, 100.00,   0.00,   0.00,  0.00000,  0.00000,  0.00000,  0.00000, 1,1,   0.00,   1,1.0000,   0,1.0000,   0,1.0000,   0,1.0000
    34,    54,'1 ',6.26790E-3,4.28187E-2,7.28500E-3, 221.10,   0.00,   0.00,  0.00000,  0.00000,  0.00000,  0.00000, 1,1,   0.00,   1,1.0000,   0,1.0000,   0,1.0000,   0,1.0000
    34,   137,'1 ',6.91136E-3,4.46393E-2,8.51634E-3, 221.10,   0.00,   0.00,  0.00000,  0.00000,  0.00000,  0.00000, 1,1,   0.00,   1,1.0000,   0,1.0000,   0,1.0000,   0,1.0000
    37,    36,'1 ',5.51771E-4,3.32751E-3,0.00000E-1, 100.00,   0.00,   0.00,  0.00000,  0.00000,  0.00000,  0.00000, 1,1,   0.00,   1,1.0000,   0,1.0000,   0,1.0000,   0,1.0000
    38,    36,'1 ',6.70046E-4,3.51083E-3,0.00000E-1, 100.00,   0.00,   0.00,  0.00000,  0.00000,  0.00000,  0.00000, 1,1,   0.00,   1,1.0000,   0,1.0000,   0,1.0000,   0,1.0000
    58,    36,'1 ',1.08894E-2,7.43904E-2,1.26565E-2, 221.10,   0.00,   0.00,  0.00000,  0.00000,  0.00000,  0.00000, 1,1,   0.00,   1,1.0000,   0,1.0000,   0,1.0000,   0,1.0000
    83,    36,'1 ',9.61543E-3,6.69864E-2,1.09503E-2, 221.10,   0.00,   0.00,  0.00000,  0.00000,  0.00000,  0.00000, 1,1,   0.00,   1,1.0000,   0,1.0000,   0,1.0000,   0,1.0000
    40,    39,'1 ',5.05298E-4,3.10299E-3,0.00000E-1, 100.00,   0.00,   0.00,  0.00000,  0.00000,  0.00000,  0.00000, 1,1,   0.00,   1,1.0000,   0,1.0000,   0,1.0000,   0,1.0000
    39,    85,'1 ',8.70223E-3,6.06246E-2,9.91033E-3, 221.10,   0.00,   0.00,  0.00000,  0.00000,  0.00000,  0.00000, 1,1,   0.00,   1,1.0000,   0,1.0000,   0,1.0000,   0,1.0000
   159,    39,'1 ',7.33218E-3,5.10801E-2,8.35008E-3, 221.10,   0.00,   0.00,  0.00000,  0.00000,  0.00000,  0.00000, 1,1,   0.00,   1,1.0000,   0,1.0000,   0,1.0000,   0,1.0000
    41,   100,'1 ',4.59470E-3,2.96763E-2,5.66169E-3, 221.10,   0.00,   0.00,  0.00000,  0.00000,  0.00000,  0.00000, 1,1,   0.00,   1,1.0000,   0,1.0000,   0,1.0000,   0,1.0000
    41,   163,'1 ',3.16521E-3,2.16229E-2,3.67884E-3, 221.10,   0.00,   0.00,  0.00000,  0.00000,  0.00000,  0.00000, 1,1,   0.00,   1,1.0000,   0,1.0000,   0,1.0000,   0,1.0000
    41,   180,'1 ',9.40820E-3,6.07659E-2,1.15930E-2, 221.10,   0.00,   0.00,  0.00000,  0.00000,  0.00000,  0.00000, 1,1,   0.00,   1,1.0000,   0,1.0000,   0,1.0000,   0,1.0000
    44,    42,'1 ',1.22561E-2,8.53826E-2,1.39575E-2, 221.10,   0.00,   0.00,  0.00000,  0.00000,  0.00000,  0.00000, 1,1,   0.00,   1,1.0000,   0,1.0000,   0,1.0000,   0,1.0000
...